16
Frame from Quantum Espresso Output
Zn -1.0735556570 1.0841422360 1.1977635690
Zn -5.3630098694 0.0406603226 3.2619954316
Zn -1.6915203730 3.6244172340 1.1977635690
Zn -5.9809748739 2.5809351951 3.2619954385
Zn 4.4565957100 1.0841422360 1.1977635690
Zn 0.1663199215 0.0404601119 3.2618980616
Zn 3.8386309950 3.6244172340 1.1977635690
Zn -0.4516448567 2.5807354916 3.2618979854
Zn 1.6915202950 0.4114908680 0.8555452660
Zn -2.5994675531 -0.6323642161 2.9173860528
Zn 1.0735555790 2.9517658660 0.8555452660
Zn -3.2174323570 1.9079108491 2.9173859410
Zn 7.2216716620 0.4114908680 0.8555452660
Zn 2.9300856570 -0.6325097140 2.9176051177
Zn 6.6037069470 2.9517658660 0.8555452660
Zn 2.3121210658 1.9077653021 2.9176052216
16
Frame from Quantum Espresso Output
Zn -1.0735556570 1.0841422360 1.1977635690
Zn -5.3580781282 0.0418600578 3.2741502859
Zn -1.6915203730 3.6244172340 1.1977635690
Zn -5.9760432293 2.5821349308 3.2741502947
Zn 4.4565957100 1.0841422360 1.1977635690
Zn 0.1711616344 0.0416378963 3.2740045609
Zn 3.8386309950 3.6244172340 1.1977635690
Zn -0.4468031389 2.5819133253 3.2740044690
Zn 1.6915202950 0.4114908680 0.8555452660
Zn -2.5959373586 -0.6315053445 2.9269368464
Zn 1.0735555790 2.9517658660 0.8555452660
Zn -3.2139022062 1.9087697214 2.9269366985
Zn 7.2216716620 0.4114908680 0.8555452660
Zn 2.9332319205 -0.6317443400 2.9271839474
Zn 6.6037069470 2.9517658660 0.8555452660
Zn 2.3152673120 1.9085307107 2.9271840957
16
Frame from Quantum Espresso Output
Zn -1.0735556570 1.0841422360 1.1977635690
Zn -5.3507345775 0.0436465649 3.2924056955
Zn -1.6915203730 3.6244172340 1.1977635690
Zn -5.9686998251 2.5839213718 3.2924057281
Zn 4.4565957100 1.0841422360 1.1977635690
Zn 0.1782455447 0.0433611480 3.2922107435
Zn 3.8386309950 3.6244172340 1.1977635690
Zn -0.4397192334 2.5836366418 3.2922106169
Zn 1.6915202950 0.4114908680 0.8555452660
Zn -2.5904679903 -0.6301747288 2.9412348575
Zn 1.0735555790 2.9517658660 0.8555452660
Zn -3.2084328559 1.9101003352 2.9412346612
Zn 7.2216716620 0.4114908680 0.8555452660
Zn 2.9382373739 -0.6305266327 2.9415619863
Zn 6.6037069470 2.9517658660 0.8555452660
Zn 2.3202728419 1.9097484131 2.9415621742
16
Frame from Quantum Espresso Output
Zn -1.0735556570 1.0841422360 1.1977635690
Zn -5.3397109094 0.0463283868 3.3197852509
Zn -1.6915203730 3.6244172340 1.1977635690
Zn -5.9576763758 2.5866030958 3.3197853156
Zn 4.4565957100 1.0841422360 1.1977635690
Zn 0.1889802554 0.0459725261 3.3195348638
Zn 3.8386309950 3.6244172340 1.1977635690
Zn -0.4289845358 2.5862481317 3.3195346768
Zn 1.6915202950 0.4114908680 0.8555452660
Zn -2.5817868683 -0.6280628180 2.9625429603
Zn 1.0735555790 2.9517658660 0.8555452660
Zn -3.1997517586 1.9122122597 2.9625427014
Zn 7.2216716620 0.4114908680 0.8555452660
Zn 2.9458201939 -0.6286818584 2.9630235419
Zn 6.6037069470 2.9517658660 0.8555452660
Zn 2.3278557594 1.9115931732 2.9630237809
16
Frame from Quantum Espresso Output
Zn -1.0735556570 1.0841422360 1.1977635690
Zn -5.3231195830 0.0503647596 3.3608307246
Zn -1.6915203730 3.6244172340 1.1977635690
Zn -5.9410853665 2.5906393921 3.3608308487
Zn 4.4565957100 1.0841422360 1.1977635690
Zn 0.2052674626 0.0499347254 3.3605170807
Zn 3.8386309950 3.6244172340 1.1977635690
Zn -0.4126973216 2.5902104357 3.3605168060
Zn 1.6915202950 0.4114908680 0.8555452660
Zn -2.5685202474 -0.6248353898 2.9942603023
Zn 1.0735555790 2.9517658660 0.8555452660
Zn -3.1864852049 1.9154397079 2.9942599691
Zn 7.2216716620 0.4114908680 0.8555452660
Zn 2.9577746551 -0.6257736400 2.9948624764
Zn 6.6037069470 2.9517658660 0.8555452660
Zn 2.3398103467 1.9145013990 2.9948627662
16
Frame from Quantum Espresso Output
Zn -1.0735556570 1.0841422360 1.1977635690
Zn -5.2975929968 0.0565748466 3.4221209579
Zn -1.6915203730 3.6244172340 1.1977635690
Zn -5.9155592481 2.5968493694 3.4221211234
Zn 4.4565957100 1.0841422360 1.1977635690
Zn 0.2298536055 0.0559157551 3.4217828130
Zn 3.8386309950 3.6244172340 1.1977635690
Zn -0.3881111609 2.5961915342 3.4217824142
Zn 1.6915202950 0.4114908680 0.8555452660
Zn -2.5477033131 -0.6197711016 3.0412584912
Zn 1.0735555790 2.9517658660 0.8555452660
Zn -3.1656683369 1.9205040026 3.0412580437
Zn 7.2216716620 0.4114908680 0.8555452660
Zn 2.9768803445 -0.6211256937 3.0422266780
Zn 6.6037069470 2.9517658660 0.8555452660
Zn 2.3589162059 1.9191493543 3.0422270386
16
Frame from Quantum Espresso Output
Zn -1.0735556570 1.0841422360 1.1977635690
Zn -5.2723472148 0.0627166870 3.4815367637
Zn -1.6915203730 3.6244172340 1.1977635690
Zn -5.8903139051 2.6029910833 3.4815369838
Zn 4.4565957100 1.0841422360 1.1977635690
Zn 0.2541350288 0.0618226863 3.4814065421
Zn 3.8386309950 3.6244172340 1.1977635690
Zn -0.3638296523 2.6020982833 3.4814060713
Zn 1.6915202950 0.4114908680 0.8555452660
Zn -2.5262382865 -0.6145490995 3.0860450279
Zn 1.0735555790 2.9517658660 0.8555452660
Zn -3.1442033611 1.9257259681 3.0860444999
Zn 7.2216716620 0.4114908680 0.8555452660
Zn 2.9973841465 -0.6161376791 3.0874408461
Zn 6.6037069470 2.9517658660 0.8555452660
Zn 2.3794200699 1.9241374021 3.0874412635
16
Frame from Quantum Espresso Output
Zn -1.0735556570 1.0841422360 1.1977635690
Zn -5.2644235378 0.0646443707 3.4995889529
Zn -1.6915203730 3.6244172340 1.1977635690
Zn -5.8823902972 2.6049187435 3.4995891585
Zn 4.4565957100 1.0841422360 1.1977635690
Zn 0.2621326141 0.0637682224 3.4996395960
Zn 3.8386309950 3.6244172340 1.1977635690
Zn -0.3558320499 2.6040437141 3.4996391022
Zn 1.6915202950 0.4114908680 0.8555452660
Zn -2.5182770049 -0.6126122547 3.0988604153
Zn 1.0735555790 2.9517658660 0.8555452660
Zn -3.1362420705 1.9276628292 3.0988598992
Zn 7.2216716620 0.4114908680 0.8555452660
Zn 3.0053320233 -0.6142041971 3.1003308540
Zn 6.6037069470 2.9517658660 0.8555452660
Zn 2.3873679282 1.9260708825 3.1003312799
16
Frame from Quantum Espresso Output
Zn -1.0735556570 1.0841422360 1.1977635690
Zn -5.2567768786 0.0665045650 3.5158693342
Zn -1.6915203730 3.6244172340 1.1977635690
Zn -5.8747436697 2.6067789703 3.5158695661
Zn 4.4565957100 1.0841422360 1.1977635690
Zn 0.2699156980 0.0656615740 3.5160105504
Zn 3.8386309950 3.6244172340 1.1977635690
Zn -0.3480489324 2.6059368773 3.5160100469
Zn 1.6915202950 0.4114908680 0.8555452660
Zn -2.5096630992 -0.6105166126 3.1093585660
Zn 1.0735555790 2.9517658660 0.8555452660
Zn -3.1276281543 1.9297584751 3.1093580759
Zn 7.2216716620 0.4114908680 0.8555452660
Zn 3.0138205320 -0.6121391231 3.1107270691
Zn 6.6037069470 2.9517658660 0.8555452660
Zn 2.3958563890 1.9281359431 3.1107274863
16
Frame from Quantum Espresso Output
Zn -1.0735556570 1.0841422360 1.1977635690
Zn -5.2576231488 0.0662986609 3.5124274645
Zn -1.6915203730 3.6244172340 1.1977635690
Zn -5.8755898781 2.6065731071 3.5124276903
Zn 4.4565957100 1.0841422360 1.1977635690
Zn 0.2691617835 0.0654781969 3.5126239208
Zn 3.8386309950 3.6244172340 1.1977635690
Zn -0.3488028382 2.6057534446 3.5126234350
Zn 1.6915202950 0.4114908680 0.8555452660
Zn -2.5094007907 -0.6104528339 3.1057945390
Zn 1.0735555790 2.9517658660 0.8555452660
Zn -3.1273658256 1.9298222533 3.1057940731
Zn 7.2216716620 0.4114908680 0.8555452660
Zn 3.0143347082 -0.6120140377 3.1071011408
Zn 6.6037069470 2.9517658660 0.8555452660
Zn 2.3963705198 1.9282610273 3.1071015477
16
Frame from Quantum Espresso Output
Zn -1.0735556570 1.0841422360 1.1977635690
Zn -5.2572567068 0.0663877581 3.5108020803
Zn -1.6915203730 3.6244172340 1.1977635690
Zn -5.8752233507 2.6066622551 3.5108023053
Zn 4.4565957100 1.0841422360 1.1977635690
Zn 0.2697420838 0.0656194153 3.5111020601
Zn 3.8386309950 3.6244172340 1.1977635690
Zn -0.3482225269 2.6058945498 3.5111015940
Zn 1.6915202950 0.4114908680 0.8555452660
Zn -2.5073350334 -0.6099503280 3.1028146168
Zn 1.0735555790 2.9517658660 0.8555452660
Zn -3.1253000294 1.9303247600 3.1028141943
Zn 7.2216716620 0.4114908680 0.8555452660
Zn 3.0168338000 -0.6114060569 3.1039975845
Zn 6.6037069470 2.9517658660 0.8555452660
Zn 2.3988695422 1.9288689956 3.1039979684
16
Frame from Quantum Espresso Output
Zn -1.0735556570 1.0841422360 1.1977635690
Zn -5.2560856053 0.0666725820 3.5090570078
Zn -1.6915203730 3.6244172340 1.1977635690
Zn -5.8740521172 2.6069471501 3.5090572229
Zn 4.4565957100 1.0841422360 1.1977635690
Zn 0.2710484715 0.0659372680 3.5094723612
Zn 3.8386309950 3.6244172340 1.1977635690
Zn -0.3469161182 2.6062122681 3.5094719338
Zn 1.6915202950 0.4114908680 0.8555452660
Zn -2.5036844413 -0.6090622713 3.0986460384
Zn 1.0735555790 2.9517658660 0.8555452660
Zn -3.1216493984 1.9312128199 3.0986456725
Zn 7.2216716620 0.4114908680 0.8555452660
Zn 3.0209340613 -0.6104085615 3.0996675758
Zn 6.6037069470 2.9517658660 0.8555452660
Zn 2.4029697003 1.9298664915 3.0996679329
16
Frame from Quantum Espresso Output
Zn -1.0735556570 1.0841422360 1.1977635690
Zn -5.2536313846 0.0672694894 3.5076281072
Zn -1.6915203730 3.6244172340 1.1977635690
Zn -5.8715977164 2.6075441842 3.5076283219
Zn 4.4565957100 1.0841422360 1.1977635690
Zn 0.2737681517 0.0665989204 3.5082709475
Zn 3.8386309950 3.6244172340 1.1977635690
Zn -0.3441964132 2.6068737568 3.5082705792
Zn 1.6915202950 0.4114908680 0.8555452660
Zn -2.4978102521 -0.6076332304 3.0931822995
Zn 1.0735555790 2.9517658660 0.8555452660
Zn -3.1157751503 1.9326418466 3.0931820264
Zn 7.2216716620 0.4114908680 0.8555452660
Zn 3.0277816313 -0.6087427314 3.0939590686
Zn 6.6037069470 2.9517658660 0.8555452660
Zn 2.4098171192 1.9315323211 3.0939593919
16
Frame from Quantum Espresso Output
Zn -1.0735556570 1.0841422360 1.1977635690
Zn -5.2499132895 0.0681737760 3.5047431149
Zn -1.6915203730 3.6244172340 1.1977635690
Zn -5.8678793339 2.6084486437 3.5047433172
Zn 4.4565957100 1.0841422360 1.1977635690
Zn 0.2779111804 0.0676068835 3.5058236248
Zn 3.8386309950 3.6244172340 1.1977635690
Zn -0.3400533495 2.6078814707 3.5058233360
Zn 1.6915202950 0.4114908680 0.8555452660
Zn -2.4891615795 -0.6055291828 3.0843463610
Zn 1.0735555790 2.9517658660 0.8555452660
Zn -3.1071263845 1.9347458893 3.0843462133
Zn 7.2216716620 0.4114908680 0.8555452660
Zn 3.0376215880 -0.6063489276 3.0848755513
Zn 6.6037069470 2.9517658660 0.8555452660
Zn 2.4196568458 1.9339261113 3.0848758208
16
Frame from Quantum Espresso Output
Zn -1.0735556570 1.0841422360 1.1977635690
Zn -5.2433497712 0.0697701772 3.5014399491
Zn -1.6915203730 3.6244172340 1.1977635690
Zn -5.8613153805 2.6100452749 3.5014401230
Zn 4.4565957100 1.0841422360 1.1977635690
Zn 0.2849496244 0.0693192758 3.5030007193
Zn 3.8386309950 3.6244172340 1.1977635690
Zn -0.3330148497 2.6095935339 3.5030005537
Zn 1.6915202950 0.4114908680 0.8555452660
Zn -2.4759943718 -0.6023259441 3.0718045494
Zn 1.0735555790 2.9517658660 0.8555452660
Zn -3.0939590575 1.9379491494 3.0718045996
Zn 7.2216716620 0.4114908680 0.8555452660
Zn 3.0528323108 -0.6026485729 3.0717859263
Zn 6.6037069470 2.9517658660 0.8555452660
Zn 2.4348672081 1.9376264325 3.0717861367
16
Frame from Quantum Espresso Output
Zn -1.0735556570 1.0841422360 1.1977635690
Zn -5.2306100706 0.0728689776 3.5011541811
Zn -1.6915203730 3.6244172340 1.1977635690
Zn -5.8485750425 2.6131443987 3.5011543166
Zn 4.4565957100 1.0841422360 1.1977635690
Zn 0.2986143286 0.0726436736 3.5035093082
Zn 3.8386309950 3.6244172340 1.1977635690
Zn -0.3193500868 2.6129174696 3.5035093248
Zn 1.6915202950 0.4114908680 0.8555452660
Zn -2.4538040632 -0.5969276331 3.0558862930
Zn 1.0735555790 2.9517658660 0.8555452660
Zn -3.0717685433 1.9433474606 3.0558866232
Zn 7.2216716620 0.4114908680 0.8555452660
Zn 3.0777789956 -0.5965796977 3.0551208456
Zn 6.6037069470 2.9517658660 0.8555452660
Zn 2.4598133671 1.9436952482 3.0551209569
16
Frame from Quantum Espresso Output
Zn -1.0735556570 1.0841422360 1.1977635690
Zn -5.2091102076 0.0780989376 3.5056272598
Zn -1.6915203730 3.6244172340 1.1977635690
Zn -5.8270743178 2.6183747223 3.5056273202
Zn 4.4565957100 1.0841422360 1.1977635690
Zn 0.3213185847 0.0781670471 3.5089987060
Zn 3.8386309950 3.6244172340 1.1977635690
Zn -0.2966457822 2.6184403741 3.5089989653
Zn 1.6915202950 0.4114908680 0.8555452660
Zn -2.4216500601 -0.5891055407 3.0372120631
Zn 1.0735555790 2.9517658660 0.8555452660
Zn -3.0396142723 1.9511695712 3.0372127597
Zn 7.2216716620 0.4114908680 0.8555452660
Zn 3.1137663992 -0.5878248370 3.0354331013
Zn 6.6037069470 2.9517658660 0.8555452660
Zn 2.4958000884 1.9524500045 3.0354330939
16
Frame from Quantum Espresso Output
Zn -1.0735556570 1.0841422360 1.1977635690
Zn -5.2021973806 0.0797806391 3.5102982185
Zn -1.6915203730 3.6244172340 1.1977635690
Zn -5.8201613853 2.6200563936 3.5102982613
Zn 4.4565957100 1.0841422360 1.1977635690
Zn 0.3281940367 0.0798395711 3.5137295376
Zn 3.8386309950 3.6244172340 1.1977635690
Zn -0.2897703711 2.6201130182 3.5137298246
Zn 1.6915202950 0.4114908680 0.8555452660
Zn -2.4159711730 -0.5877241174 3.0373661159
Zn 1.0735555790 2.9517658660 0.8555452660
Zn -3.0339353519 1.9525509985 3.0373668442
Zn 7.2216716620 0.4114908680 0.8555452660
Zn 3.1196800841 -0.5863862008 3.0355482095
Zn 6.6037069470 2.9517658660 0.8555452660
Zn 2.5017137237 1.9538885995 3.0355481936
16
Frame from Quantum Espresso Output
Zn -1.0735556570 1.0841422360 1.1977635690
Zn -5.1946875453 0.0816076622 3.5155829682
Zn -1.6915203730 3.6244172340 1.1977635690
Zn -5.8126514910 2.6218833161 3.5155829938
Zn 4.4565957100 1.0841422360 1.1977635690
Zn 0.3357371658 0.0816744392 3.5188463003
Zn 3.8386309950 3.6244172340 1.1977635690
Zn -0.2822273141 2.6219481619 3.5188465954
Zn 1.6915202950 0.4114908680 0.8555452660
Zn -2.4120621138 -0.5867733016 3.0391064779
Zn 1.0735555790 2.9517658660 0.8555452660
Zn -3.0300262745 1.9535018177 3.0391072067
Zn 7.2216716620 0.4114908680 0.8555452660
Zn 3.1234467445 -0.5854698920 3.0372559072
Zn 6.6037069470 2.9517658660 0.8555452660
Zn 2.5054804053 1.9548048631 3.0372558861
16
Frame from Quantum Espresso Output
Zn -1.0735556570 1.0841422360 1.1977635690
Zn -5.1823362212 0.0846124498 3.5215544488
Zn -1.6915203730 3.6244172340 1.1977635690
Zn -5.8003000145 2.6248879834 3.5215544470
Zn 4.4565957100 1.0841422360 1.1977635690
Zn 0.3481379769 0.0846909602 3.5246153588
Zn 3.8386309950 3.6244172340 1.1977635690
Zn -0.2698266047 2.6249650702 3.5246156865
Zn 1.6915202950 0.4114908680 0.8555452660
Zn -2.4051050025 -0.5850810807 3.0387138792
Zn 1.0735555790 2.9517658660 0.8555452660
Zn -3.0230691164 1.9551940262 3.0387146331
Zn 7.2216716620 0.4114908680 0.8555452660
Zn 3.1310046495 -0.5836312599 3.0366900035
Zn 6.6037069470 2.9517658660 0.8555452660
Zn 2.5130383090 1.9566434234 3.0366899657
16
Frame from Quantum Espresso Output
Zn -1.0735556570 1.0841422360 1.1977635690
Zn -5.1634571492 0.0892052567 3.5296959629
Zn -1.6915203730 3.6244172340 1.1977635690
Zn -5.7814207569 2.6294805631 3.5296959250
Zn 4.4565957100 1.0841422360 1.1977635690
Zn 0.3667901149 0.0892280626 3.5326369777
Zn 3.8386309950 3.6244172340 1.1977635690
Zn -0.2511746534 2.6295028503 3.5326373299
Zn 1.6915202950 0.4114908680 0.8555452660
Zn -2.3959071626 -0.5828439145 3.0382075322
Zn 1.0735555790 2.9517658660 0.8555452660
Zn -3.0138712343 1.9574311563 3.0382082931
Zn 7.2216716620 0.4114908680 0.8555452660
Zn 3.1403916101 -0.5813477260 3.0363502497
Zn 6.6037069470 2.9517658660 0.8555452660
Zn 2.5224253444 1.9589268505 3.0363501722
16
Frame from Quantum Espresso Output
Zn -1.0735556570 1.0841422360 1.1977635690
Zn -5.1342791559 0.0963033937 3.5395351356
Zn -1.6915203730 3.6244172340 1.1977635690
Zn -5.7522425472 2.6365782916 3.5395350519
Zn 4.4565957100 1.0841422360 1.1977635690
Zn 0.3958414520 0.0962947132 3.5420006639
Zn 3.8386309950 3.6244172340 1.1977635690
Zn -0.2221236435 2.6365706839 3.5420010549
Zn 1.6915202950 0.4114908680 0.8555452660
Zn -2.3853705326 -0.5802813437 3.0370526946
Zn 1.0735555790 2.9517658660 0.8555452660
Zn -3.0033345602 1.9599936618 3.0370534368
Zn 7.2216716620 0.4114908680 0.8555452660
Zn 3.1510923463 -0.5787447426 3.0353901382
Zn 6.6037069470 2.9517658660 0.8555452660
Zn 2.5331262974 1.9615297156 3.0353900121
16
Frame from Quantum Espresso Output
Zn -1.0735556570 1.0841422360 1.1977635690
Zn -5.1136757456 0.1013155468 3.5418796867
Zn -1.6915203730 3.6244172340 1.1977635690
Zn -5.7316389723 2.6415901989 3.5418795815
Zn 4.4565957100 1.0841422360 1.1977635690
Zn 0.4163254945 0.1012774297 3.5439016965
Zn 3.8386309950 3.6244172340 1.1977635690
Zn -0.2016398070 2.6415541036 3.5439021183
Zn 1.6915202950 0.4114908680 0.8555452660
Zn -2.3790960416 -0.5787554250 3.0326275347
Zn 1.0735555790 2.9517658660 0.8555452660
Zn -2.9970600505 1.9615195314 3.0326282592
Zn 7.2216716620 0.4114908680 0.8555452660
Zn 3.1575166416 -0.5771821341 3.0311555074
Zn 6.6037069470 2.9517658660 0.8555452660
Zn 2.5395507639 1.9630922968 3.0311553381
16
Frame from Quantum Espresso Output
Zn -1.0735556570 1.0841422360 1.1977635690
Zn -5.1042318067 0.1036128744 3.5374574479
Zn -1.6915203730 3.6244172340 1.1977635690
Zn -5.7221950040 2.6438874837 3.5374573413
Zn 4.4565957100 1.0841422360 1.1977635690
Zn 0.4258456901 0.1035933073 3.5390767226
Zn 3.8386309950 3.6244172340 1.1977635690
Zn -0.1921196670 2.6438701540 3.5390771515
Zn 1.6915202950 0.4114908680 0.8555452660
Zn -2.3783965819 -0.5785855278 3.0270428347
Zn 1.0735555790 2.9517658660 0.8555452660
Zn -2.9963605986 1.9616894057 3.0270435331
Zn 7.2216716620 0.4114908680 0.8555452660
Zn 3.1581644257 -0.5770247665 3.0257224946
Zn 6.6037069470 2.9517658660 0.8555452660
Zn 2.5401986820 1.9632497118 3.0257222987
16
Frame from Quantum Espresso Output
Zn -1.0735556570 1.0841422360 1.1977635690
Zn -5.0998555988 0.1046773228 3.5268783954
Zn -1.6915203730 3.6244172340 1.1977635690
Zn -5.7178188312 2.6449520380 3.5268783115
Zn 4.4565957100 1.0841422360 1.1977635690
Zn 0.4303099977 0.1046794459 3.5279764350
Zn 3.8386309950 3.6244172340 1.1977635690
Zn -0.1876553223 2.6449560681 3.5279768750
Zn 1.6915202950 0.4114908680 0.8555452660
Zn -2.3807423677 -0.5791563413 3.0187291782
Zn 1.0735555790 2.9517658660 0.8555452660
Zn -2.9987064264 1.9611185865 3.0187298395
Zn 7.2216716620 0.4114908680 0.8555452660
Zn 3.1558424441 -0.5775899893 3.0175685505
Zn 6.6037069470 2.9517658660 0.8555452660
Zn 2.5378768290 1.9626846124 3.0175683290
16
Frame from Quantum Espresso Output
Zn -1.0735556570 1.0841422360 1.1977635690
Zn -5.1057955606 0.1032322147 3.5191396703
Zn -1.6915203730 3.6244172340 1.1977635690
Zn -5.7237589371 2.6435071015 3.5191396076
Zn 4.4565957100 1.0841422360 1.1977635690
Zn 0.4243111272 0.1032204287 3.5200147449
Zn 3.8386309950 3.6244172340 1.1977635690
Zn -0.1936540601 2.6434965419 3.5200151571
Zn 1.6915202950 0.4114908680 0.8555452660
Zn -2.3857718372 -0.5803798221 3.0166695388
Zn 1.0735555790 2.9517658660 0.8555452660
Zn -3.0037359540 1.9598951297 3.0166701484
Zn 7.2216716620 0.4114908680 0.8555452660
Zn 3.1503042069 -0.5789374529 3.0156966426
Zn 6.6037069470 2.9517658660 0.8555452660
Zn 2.5323386494 1.9613372656 3.0156964324
16
Frame from Quantum Espresso Output
Zn -1.0735556570 1.0841422360 1.1977635690
Zn -5.1101808574 0.1021653430 3.5163500613
Zn -1.6915203730 3.6244172340 1.1977635690
Zn -5.7281443551 2.6424403746 3.5163500066
Zn 4.4565957100 1.0841422360 1.1977635690
Zn 0.4199290411 0.1021546380 3.5170318873
Zn 3.8386309950 3.6244172340 1.1977635690
Zn -0.1980360118 2.6424303018 3.5170322768
Zn 1.6915202950 0.4114908680 0.8555452660
Zn -2.3877111517 -0.5808515416 3.0174377102
Zn 1.0735555790 2.9517658660 0.8555452660
Zn -3.0056753095 1.9594234341 3.0174382764
Zn 7.2216716620 0.4114908680 0.8555452660
Zn 3.1476951938 -0.5795722475 3.0165458424
Zn 6.6037069470 2.9517658660 0.8555452660
Zn 2.5297296461 1.9607025410 3.0165456513
16
Frame from Quantum Espresso Output
Zn -1.0735556570 1.0841422360 1.1977635690
Zn -5.1155124186 0.1008682077 3.5142741098
Zn -1.6915203730 3.6244172340 1.1977635690
Zn -5.7334761122 2.6411435009 3.5142740579
Zn 4.4565957100 1.0841422360 1.1977635690
Zn 0.4146272387 0.1008652677 3.5147163104
Zn 3.8386309950 3.6244172340 1.1977635690
Zn -0.2033375764 2.6411401209 3.5147166608
Zn 1.6915202950 0.4114908680 0.8555452660
Zn -2.3880545814 -0.5809350159 3.0202130329
Zn 1.0735555790 2.9517658660 0.8555452660
Zn -3.0060188052 1.9593400108 3.0202135232
Zn 7.2216716620 0.4114908680 0.8555452660
Zn 3.1462106688 -0.5799335717 3.0194959681
Zn 6.6037069470 2.9517658660 0.8555452660
Zn 2.5282451236 1.9603413193 3.0194958071
16
Frame from Quantum Espresso Output
Zn -1.0735556570 1.0841422360 1.1977635690
Zn -5.1187392035 0.1000830000 3.5108826311
Zn -1.6915203730 3.6244172340 1.1977635690
Zn -5.7367032350 2.6403587157 3.5108825788
Zn 4.4565957100 1.0841422360 1.1977635690
Zn 0.4113966123 0.1000799877 3.5105685112
Zn 3.8386309950 3.6244172340 1.1977635690
Zn -0.2065678052 2.6403535050 3.5105687939
Zn 1.6915202950 0.4114908680 0.8555452660
Zn -2.3857815468 -0.5803821222 3.0243562138
Zn 1.0735555790 2.9517658660 0.8555452660
Zn -3.0037459012 1.9598929812 3.0243565413
Zn 7.2216716620 0.4114908680 0.8555452660
Zn 3.1460335480 -0.5799771465 3.0240376901
Zn 6.6037069470 2.9517658660 0.8555452660
Zn 2.5280680787 1.9602979272 3.0240375785
16
Frame from Quantum Espresso Output
Zn -1.0735556570 1.0841422360 1.1977635690
Zn -5.1167490414 0.1005669419 3.5079835077
Zn -1.6915203730 3.6244172340 1.1977635690
Zn -5.7347133821 2.6408429826 3.5079834508
Zn 4.4565957100 1.0841422360 1.1977635690
Zn 0.4134160002 0.1005716994 3.5067705041
Zn 3.8386309950 3.6244172340 1.1977635690
Zn -0.2045480894 2.6408441529 3.5067707227
Zn 1.6915202950 0.4114908680 0.8555452660
Zn -2.3812559009 -0.5792813657 3.0278916027
Zn 1.0735555790 2.9517658660 0.8555452660
Zn -2.9992203983 1.9609937985 3.0278917502
Zn 7.2216716620 0.4114908680 0.8555452660
Zn 3.1480619223 -0.5794842509 3.0280371011
Zn 6.6037069470 2.9517658660 0.8555452660
Zn 2.5300966061 1.9607909819 3.0280370300
16
Frame from Quantum Espresso Output
Zn -1.0735556570 1.0841422360 1.1977635690
Zn -5.1098022246 0.1022566764 3.5040330290
Zn -1.6915203730 3.6244172340 1.1977635690
Zn -5.7277669289 2.6425330075 3.5040329672
Zn 4.4565957100 1.0841422360 1.1977635690
Zn 0.4202620461 0.1022374994 3.5015468057
Zn 3.8386309950 3.6244172340 1.1977635690
Zn -0.1977017153 2.6425089445 3.5015469426
Zn 1.6915202950 0.4114908680 0.8555452660
Zn -2.3738266240 -0.5774743546 3.0316127400
Zn 1.0735555790 2.9517658660 0.8555452660
Zn -2.9917913184 1.9628008683 3.0316126401
Zn 7.2216716620 0.4114908680 0.8555452660
Zn 3.1522332022 -0.5784703039 3.0324155341
Zn 6.6037069470 2.9517658660 0.8555452660
Zn 2.5342681669 1.9618050992 3.0324155088
16
Frame from Quantum Espresso Output
Zn -1.0735556570 1.0841422360 1.1977635690
Zn -5.0990449956 0.1048734761 3.4982373328
Zn -1.6915203730 3.6244172340 1.1977635690
Zn -5.7170100123 2.6451499318 3.4982372705
Zn 4.4565957100 1.0841422360 1.1977635690
Zn 0.4310088128 0.1048519051 3.4944217238
Zn 3.8386309950 3.6244172340 1.1977635690
Zn -0.1869547485 2.6451228196 3.4944217816
Zn 1.6915202950 0.4114908680 0.8555452660
Zn -2.3650591418 -0.5753418373 3.0334830930
Zn 1.0735555790 2.9517658660 0.8555452660
Zn -2.9830240541 1.9649334187 3.0334827341
Zn 7.2216716620 0.4114908680 0.8555452660
Zn 3.1578363590 -0.5771080996 3.0349578074
Zn 6.6037069470 2.9517658660 0.8555452660
Zn 2.5398717067 1.9631674288 3.0349578217
16
Frame from Quantum Espresso Output
Zn -1.0735556570 1.0841422360 1.1977635690
Zn -5.0953819338 0.1057646918 3.4977875128
Zn -1.6915203730 3.6244172340 1.1977635690
Zn -5.7133469429 2.6460408777 3.4977874619
Zn 4.4565957100 1.0841422360 1.1977635690
Zn 0.4345465273 0.1057121167 3.4939025328
Zn 3.8386309950 3.6244172340 1.1977635690
Zn -0.1834172083 2.6459837421 3.4939025741
Zn 1.6915202950 0.4114908680 0.8555452660
Zn -2.3634975957 -0.5749620199 3.0342243902
Zn 1.0735555790 2.9517658660 0.8555452660
Zn -2.9814625537 1.9653131895 3.0342239842
Zn 7.2216716620 0.4114908680 0.8555452660
Zn 3.1591330182 -0.5767927334 3.0357942886
Zn 6.6037069470 2.9517658660 0.8555452660
Zn 2.5411685334 1.9634827189 3.0357943127
16
Frame from Quantum Espresso Output
Zn -1.0735556570 1.0841422360 1.1977635690
Zn -5.0953819338 0.1057646918 3.4977875128
Zn -1.6915203730 3.6244172340 1.1977635690
Zn -5.7133469429 2.6460408777 3.4977874619
Zn 4.4565957100 1.0841422360 1.1977635690
Zn 0.4345465273 0.1057121167 3.4939025328
Zn 3.8386309950 3.6244172340 1.1977635690
Zn -0.1834172083 2.6459837421 3.4939025741
Zn 1.6915202950 0.4114908680 0.8555452660
Zn -2.3634975957 -0.5749620199 3.0342243902
Zn 1.0735555790 2.9517658660 0.8555452660
Zn -2.9814625537 1.9653131895 3.0342239842
Zn 7.2216716620 0.4114908680 0.8555452660
Zn 3.1591330182 -0.5767927334 3.0357942886
Zn 6.6037069470 2.9517658660 0.8555452660
Zn 2.5411685334 1.9634827189 3.0357943127
